! Original network data and time series from ENWL - Low Voltage Network Solutions project (in OpenDSS format)
!   https://www.enwl.co.uk/future-energy/innovation/smaller-projects/low-carbon-networks-fund/low-voltage-network-solutions/

! Adapted with length-normalized four-wire impedance data from: 
!   Urquhart, Andrew J., and Murray Thomson. 2019. “Cable Impedance Data”. figshare. https://hdl.handle.net/2134/15544.
!   Creative Commons Attribution-NonCommercial 3.0 Unported License.

! Adaptation process described in  
!   'Distribution Network Modeling: From Simulation Towards Optimization, Sander Claeys, Phd Dissertation, KU Leuven, Belgium 2021

! Impedance transformations described in 
!   Frederik Geth, Rahmat Heidari, and Arpan Koirala. 2022. Computational analysis of impedance transformations for four-wire power networks with sparse neutral grounding. In Proceedings of the Thirteenth ACM International Conference on Future Energy Systems (e-Energy '22). Association for Computing Machinery, New York, NY, USA, 105–113. https://doi.org/10.1145/3538637.3538844

! This data is otherwise licensed under [CC BY 4.0  Attribution 4.0 International](https://creativecommons.org/licenses/by/4.0/deed.en).
! The data can be retrieved from https://data.csiro.au/


Clear
Set DefaultBaseFreq=50
New Circuit.ENWL_network_18_Feeder_5_4wire BasekV=0.416 pu=1.00 ISC3=100000 ISC1=100000
New Reactor.Grounding phases=1 bus1=sourcebus.4 bus2=sourcebus.0 R=0.0 X=1E-10

Redirect LineCode.txt
Redirect Lines.txt
Redirect Loads.txt

New Energymeter.substation Element=Line.LINE1 1

Set mode=Snap
Solve
Closedi